FoamFile {
    version     2.0;
    format      ascii;
    class       dictionary;
    location    "system";
    object      controlDict;
}

startFrom       startTime;
startTime       0;
stopAt          endTime;
endTime         172800;
deltaT          25;
writeControl    runTime;
writeInterval   25;
purgeWrite      0;
writeFormat     binary;
writePrecision  12;
writeCompression uncompressed;
timeFormat      general;
timePrecision   6;
